Version 4
SHEET 1 1884 680
WIRE -48 -496 -64 -496
WIRE 176 -496 160 -496
WIRE 400 -496 384 -496
WIRE 624 -496 608 -496
WIRE -48 -352 -48 -496
WIRE 176 -352 176 -496
WIRE 400 -352 400 -496
WIRE 624 -352 624 -496
WIRE -528 -272 -656 -272
WIRE -48 -256 -48 -272
WIRE 176 -256 176 -272
WIRE 400 -256 400 -272
WIRE 624 -256 624 -272
WIRE -528 -240 -528 -272
WIRE -656 -144 -656 -272
WIRE -112 -144 -112 -208
WIRE -112 -144 -288 -144
WIRE 112 -144 112 -208
WIRE 112 -144 -112 -144
WIRE 336 -144 336 -208
WIRE 336 -144 112 -144
WIRE 560 -144 560 -208
WIRE 560 -144 336 -144
WIRE 784 -144 560 -144
WIRE -48 -112 -48 -160
WIRE 176 -112 176 -160
WIRE 400 -112 400 -160
WIRE 624 -112 624 -160
WIRE -528 -96 -528 -160
WIRE -448 -96 -528 -96
WIRE -352 -96 -368 -96
WIRE -528 -48 -528 -96
WIRE -288 -32 -288 -48
WIRE -48 -16 -48 -48
WIRE 176 -16 176 -48
WIRE 400 -16 400 -48
WIRE 624 -16 624 -48
WIRE -656 80 -656 -64
WIRE -528 80 -528 32
WIRE -288 80 -288 48
WIRE -48 80 -48 64
WIRE 176 80 176 64
WIRE 400 80 400 64
WIRE 624 80 624 64
WIRE -528 144 -528 112
FLAG -48 80 0
FLAG -144 -496 0
FLAG 176 80 0
FLAG 80 -496 0
FLAG 400 80 0
FLAG 304 -496 0
FLAG 624 80 0
FLAG 528 -496 0
FLAG -288 80 0
FLAG -528 80 0
FLAG -656 80 0
SYMBOL LED -64 -112 R0
SYMATTR InstName D1
SYMATTR Value NSCW100
SYMATTR Description Diode
SYMATTR Type diode
SYMBOL voltage -48 -496 R90
WINDOW 123 0 0 Left 2
WINDOW 39 0 0 Left 2
SYMATTR InstName V1
SYMATTR Value PULSE(0 5 0 10u 10u 1 5)
SYMBOL res -64 -368 R0
SYMATTR InstName R1
SYMATTR Value 1k
SYMBOL pnp -112 -160 M180
SYMATTR InstName Q1
SYMATTR Value 2N4403
SYMBOL voltage -48 -32 R0
WINDOW 123 0 0 Left 2
WINDOW 39 0 0 Left 2
SYMATTR InstName V2
SYMATTR Value 0.3
SYMBOL LED 160 -112 R0
SYMATTR InstName D2
SYMATTR Value NSCW100
SYMATTR Description Diode
SYMATTR Type diode
SYMBOL voltage 176 -496 R90
WINDOW 123 0 0 Left 2
WINDOW 39 0 0 Left 2
SYMATTR InstName V3
SYMATTR Value PULSE(0 5 0 10u 10u 2 5)
SYMBOL res 160 -368 R0
SYMATTR InstName R2
SYMATTR Value 1k
SYMBOL pnp 112 -160 M180
SYMATTR InstName Q2
SYMATTR Value 2N4403
SYMBOL voltage 176 -32 R0
WINDOW 123 0 0 Left 2
WINDOW 39 0 0 Left 2
SYMATTR InstName V4
SYMATTR Value 0
SYMBOL LED 384 -112 R0
SYMATTR InstName D3
SYMATTR Value NSCW100
SYMATTR Description Diode
SYMATTR Type diode
SYMBOL voltage 400 -496 R90
WINDOW 123 0 0 Left 2
WINDOW 39 0 0 Left 2
SYMATTR InstName V5
SYMATTR Value PULSE(0 5 0 10u 10u 3 5)
SYMBOL res 384 -368 R0
SYMATTR InstName R3
SYMATTR Value 1k
SYMBOL pnp 336 -160 M180
SYMATTR InstName Q3
SYMATTR Value 2N4403
SYMBOL voltage 400 -32 R0
WINDOW 123 0 0 Left 2
WINDOW 39 0 0 Left 2
SYMATTR InstName V6
SYMATTR Value 0
SYMBOL LED 608 -112 R0
SYMATTR InstName D4
SYMATTR Value NSCW100
SYMATTR Description Diode
SYMATTR Type diode
SYMBOL voltage 624 -496 R90
WINDOW 123 0 0 Left 2
WINDOW 39 0 0 Left 2
SYMATTR InstName V7
SYMATTR Value PULSE(0 5 0 10u 10u 4 5)
SYMBOL res 608 -368 R0
SYMATTR InstName R4
SYMATTR Value 1k
SYMBOL pnp 560 -160 M180
SYMATTR InstName Q4
SYMATTR Value 2N4403
SYMBOL voltage 624 -32 R0
WINDOW 123 0 0 Left 2
WINDOW 39 0 0 Left 2
SYMATTR InstName V8
SYMATTR Value 0
SYMBOL pnp -352 -48 M180
SYMATTR InstName Q5
SYMATTR Value 2N4403
SYMBOL res -304 -48 R0
SYMATTR InstName R5
SYMATTR Value 100
SYMBOL res -352 -112 R90
WINDOW 0 0 56 VBottom 2
WINDOW 3 32 56 VTop 2
SYMATTR InstName R6
SYMATTR Value 100
SYMBOL res -544 -256 R0
SYMATTR InstName R7
SYMATTR Value 470
SYMBOL current -528 -48 R0
WINDOW 123 0 0 Left 2
WINDOW 39 0 0 Left 2
SYMATTR InstName I1
SYMATTR Value SINE(3m 2m 1)
SYMBOL voltage -656 -160 R0
WINDOW 123 0 0 Left 2
WINDOW 39 0 0 Left 2
SYMATTR InstName V9
SYMATTR Value 5
TEXT -690 104 Left 2 !.tran 5
TEXT -672 176 Left 2 ;1 TLC6C5748-Q1 channel
