Version 4
SHEET 1 1756 680
WIRE -208 48 -288 48
WIRE 80 48 -128 48
WIRE -288 80 -288 48
WIRE 80 80 80 48
WIRE 112 80 80 80
WIRE 352 80 208 80
WIRE 432 80 352 80
WIRE 640 80 528 80
WIRE 720 80 640 80
WIRE 112 112 80 112
WIRE 240 112 208 112
WIRE 320 112 240 112
WIRE 432 112 320 112
WIRE 608 112 528 112
WIRE 720 112 608 112
WIRE 352 176 352 80
WIRE 496 176 352 176
WIRE 640 176 640 80
WIRE 784 176 640 176
WIRE 608 192 608 112
WIRE 320 208 320 112
WIRE 464 208 320 208
WIRE 608 208 608 192
WIRE 752 208 608 208
WIRE -288 224 -288 160
WIRE 80 224 80 112
WIRE 80 224 -288 224
WIRE 464 240 464 208
WIRE 496 240 496 176
WIRE 752 240 752 208
WIRE 784 240 784 176
WIRE -288 272 -288 224
WIRE 240 272 240 112
WIRE 496 368 496 336
WIRE 528 368 496 368
WIRE 784 368 784 336
WIRE 816 368 784 368
WIRE 352 400 304 400
WIRE 464 400 464 336
WIRE 464 400 352 400
WIRE 640 400 592 400
WIRE 752 400 752 336
WIRE 752 400 640 400
WIRE 352 480 352 400
WIRE 384 480 352 480
WIRE 528 480 528 368
WIRE 528 480 448 480
WIRE 640 480 640 400
WIRE 672 480 640 480
WIRE 816 480 816 368
WIRE 816 480 736 480
FLAG -288 272 0
FLAG 240 272 0
FLAG 304 400 0
FLAG 592 400 0
FLAG 608 192 0
SYMBOL voltage -288 64 R0
WINDOW 123 0 0 Left 2
WINDOW 39 24 124 Left 2
SYMATTR SpiceLine Rser=37 Cpar=3p
SYMATTR InstName V1
SYMATTR Value PULSE(0 5 0us 2.5ns)
SYMBOL res -112 32 R90
WINDOW 0 0 56 VBottom 2
WINDOW 3 32 56 VTop 2
SYMATTR InstName R1
SYMATTR Value 47
SYMBOL cap 448 464 R90
WINDOW 0 0 32 VBottom 2
WINDOW 3 32 32 VTop 2
SYMATTR InstName C1
SYMATTR Value 3pF
SYMATTR SpiceLine V=5 Irms=1 Rser=0.015 Lser=450p
SYMBOL ltline 160 96 R0
SYMATTR InstName O1
SYMATTR Value MyLossyTline
SYMBOL ltline 480 288 R270
SYMATTR InstName O2
SYMATTR Value MyLossyTline
SYMBOL ltline 480 96 R0
SYMATTR InstName O3
SYMATTR Value MyLossyTline
SYMBOL cap 736 464 R90
WINDOW 0 0 32 VBottom 2
WINDOW 3 32 32 VTop 2
SYMATTR InstName C2
SYMATTR Value 3pF
SYMATTR SpiceLine V=5 Irms=1 Rser=0.015 Lser=450p
SYMBOL ltline 768 288 R270
SYMATTR InstName O4
SYMATTR Value MyLossyTline
TEXT -320 296 Left 2 !.tran 0 30ns 0 0.01ns
TEXT 640 408 Left 2 !.model MyLossyTline LTRA(len=50 R=0.00238 L=2.3e-10 C=1.462e-13)
