Version 4
SHEET 1 1756 680
WIRE -208 48 -288 48
WIRE 80 48 -128 48
WIRE 1680 48 1392 48
WIRE -288 80 -288 48
WIRE 80 80 80 48
WIRE 112 80 80 80
WIRE 352 80 208 80
WIRE 432 80 352 80
WIRE 656 80 528 80
WIRE 736 80 656 80
WIRE 912 80 832 80
WIRE 992 80 912 80
WIRE 1216 80 1088 80
WIRE 1296 80 1216 80
WIRE 1392 80 1392 48
WIRE 112 112 80 112
WIRE 240 112 208 112
WIRE 320 112 240 112
WIRE 432 112 320 112
WIRE 592 112 528 112
WIRE 624 112 592 112
WIRE 736 112 624 112
WIRE 880 112 832 112
WIRE 928 112 880 112
WIRE 992 112 928 112
WIRE 1168 112 1088 112
WIRE 1184 112 1168 112
WIRE 1296 112 1184 112
WIRE 1680 128 1680 48
WIRE 352 176 352 80
WIRE 496 176 352 176
WIRE 656 176 656 80
WIRE 800 176 656 176
WIRE 912 176 912 80
WIRE 1056 176 912 176
WIRE 1216 176 1216 80
WIRE 1360 176 1216 176
WIRE 320 208 320 112
WIRE 464 208 320 208
WIRE 624 208 624 112
WIRE 768 208 624 208
WIRE 880 208 880 112
WIRE 1024 208 880 208
WIRE 1184 208 1184 112
WIRE 1328 208 1184 208
WIRE -288 224 -288 160
WIRE 80 224 80 112
WIRE 80 224 -288 224
WIRE 1392 224 1392 112
WIRE 1680 224 1680 192
WIRE 1680 224 1392 224
WIRE 1392 256 1392 224
WIRE -288 272 -288 224
WIRE 240 272 240 112
WIRE 464 272 464 208
WIRE 496 272 496 176
WIRE 768 272 768 208
WIRE 800 272 800 176
WIRE 1024 272 1024 208
WIRE 1056 272 1056 176
WIRE 1328 272 1328 208
WIRE 1360 272 1360 176
WIRE 528 368 496 368
WIRE 832 368 800 368
WIRE 1088 368 1056 368
WIRE 1392 368 1360 368
WIRE 352 400 304 400
WIRE 464 400 464 368
WIRE 464 400 352 400
WIRE 656 400 608 400
WIRE 768 400 768 368
WIRE 768 400 656 400
WIRE 912 400 864 400
WIRE 1024 400 1024 368
WIRE 1024 400 912 400
WIRE 1216 400 1168 400
WIRE 1328 400 1328 368
WIRE 1328 400 1216 400
WIRE 352 480 352 400
WIRE 384 480 352 480
WIRE 528 480 528 368
WIRE 528 480 448 480
WIRE 656 480 656 400
WIRE 688 480 656 480
WIRE 832 480 832 368
WIRE 832 480 752 480
WIRE 912 480 912 400
WIRE 944 480 912 480
WIRE 1088 480 1088 368
WIRE 1088 480 1008 480
WIRE 1216 480 1216 400
WIRE 1248 480 1216 480
WIRE 1392 480 1392 368
WIRE 1392 480 1312 480
FLAG -288 272 0
FLAG 240 272 0
FLAG 304 400 0
FLAG 1392 256 0
FLAG 608 400 0
FLAG 864 400 0
FLAG 1168 400 0
FLAG 592 112 0
FLAG 928 112 0
FLAG 1168 112 0
SYMBOL voltage -288 64 R0
WINDOW 123 0 0 Left 2
WINDOW 39 24 124 Left 2
SYMATTR InstName V1
SYMATTR Value PULSE(0 5 1us 2.5ns)
SYMATTR SpiceLine Rser=37 Cpar=3p
SYMBOL res -112 32 R90
WINDOW 0 0 56 VBottom 2
WINDOW 3 32 56 VTop 2
SYMATTR InstName R1
SYMATTR Value 47
SYMBOL tline 160 96 R0
SYMATTR InstName T1
SYMATTR Value Td=0.28n Z0=38
SYMBOL tline 480 320 R90
SYMATTR InstName T2
SYMATTR Value Td=0.01n Z0=38
SYMBOL cap 1664 128 R0
SYMATTR InstName C3
SYMATTR Value 30pF
SYMATTR SpiceLine V=5 Irms=1 Rser=0.015 Lser=450p
SYMBOL tline 480 96 R0
SYMATTR InstName T3
SYMATTR Value Td=0.2n Z0=38
SYMBOL cap 448 464 R90
WINDOW 0 0 32 VBottom 2
WINDOW 3 32 32 VTop 2
SYMATTR InstName C1
SYMATTR Value 3pF
SYMATTR SpiceLine V=5 Irms=1 Rser=0.015 Lser=450p
SYMBOL tline 784 320 R90
SYMATTR InstName T4
SYMATTR Value Td=0.01n Z0=38
SYMBOL tline 784 96 R0
SYMATTR InstName T5
SYMATTR Value Td=0.2n Z0=38
SYMBOL cap 752 464 R90
WINDOW 0 0 32 VBottom 2
WINDOW 3 32 32 VTop 2
SYMATTR InstName C2
SYMATTR Value 3pF
SYMATTR SpiceLine V=5 Irms=1 Rser=0.015 Lser=450p
SYMBOL tline 1040 320 R90
SYMATTR InstName T6
SYMATTR Value Td=0.01n Z0=38
SYMBOL tline 1040 96 R0
SYMATTR InstName T7
SYMATTR Value Td=0.2n Z0=38
SYMBOL cap 1008 464 R90
WINDOW 0 0 32 VBottom 2
WINDOW 3 32 32 VTop 2
SYMATTR InstName C4
SYMATTR Value 3pF
SYMATTR SpiceLine V=5 Irms=1 Rser=0.015 Lser=450p
SYMBOL tline 1344 320 R90
SYMATTR InstName T8
SYMATTR Value Td=0.01n Z0=38
SYMBOL tline 1344 96 R0
SYMATTR InstName T9
SYMATTR Value Td=0.2n Z0=38
SYMBOL cap 1312 464 R90
WINDOW 0 0 32 VBottom 2
WINDOW 3 32 32 VTop 2
SYMATTR InstName C5
SYMATTR Value 3pF
SYMATTR SpiceLine V=5 Irms=1 Rser=0.015 Lser=450p
TEXT -322 296 Left 2 !.tran 0 1.03us 1us 0.01ns
